/*--------------------------------*- C++ -*----------------------------------*\
| =========                 |                                                 |
| \\      /  F ield         | OpenFOAM: The Open Source CFD Toolbox           |
|  \\    /   O peration     | Version:  2112                                  |
|   \\  /    A nd           | Website:  www.openfoam.com                      |
|    \\/     M anipulation  |                                                 |
\*---------------------------------------------------------------------------*/
FoamFile
{
    version     2.0;
    format      binary;
    arch        "LSB;label=32;scalar=64";
    class       polyBoundaryMesh;
    location    "constant/polyMesh";
    object      boundary;
}
// * * * * * * * * * * * * * * * * * * * * * * * * * * * * * * * * * * * * * //

8
(
    inlet
    {
        type            patch;
        nFaces          0;
        startFace       154120;
    }
    walls
    {
        type            patch;
        nFaces          64;
        startFace       154120;
    }
    outlet
    {
        type            patch;
        nFaces          0;
        startFace       154184;
    }
    airfoil
    {
        type            wall;
        inGroups        1(wall);
        nFaces          5567;
        startFace       154184;
    }
    procBoundary1to0
    {
        type            processor;
        inGroups        1(processor);
        nFaces          1564;
        startFace       159751;
        matchTolerance  0.0001;
        transform       unknown;
        myProcNo        1;
        neighbProcNo    0;
    }
    procBoundary1to2
    {
        type            processor;
        inGroups        1(processor);
        nFaces          1622;
        startFace       161315;
        matchTolerance  0.0001;
        transform       unknown;
        myProcNo        1;
        neighbProcNo    2;
    }
    procBoundary1to5
    {
        type            processor;
        inGroups        1(processor);
        nFaces          1185;
        startFace       162937;
        matchTolerance  0.0001;
        transform       unknown;
        myProcNo        1;
        neighbProcNo    5;
    }
    procBoundary1to6
    {
        type            processor;
        inGroups        1(processor);
        nFaces          13;
        startFace       164122;
        matchTolerance  0.0001;
        transform       unknown;
        myProcNo        1;
        neighbProcNo    6;
    }
)

// ************************************************************************* //
