/*--------------------------------*- C++ -*----------------------------------*\
| =========                 |                                                 |
| \\      /  F ield         | OpenFOAM: The Open Source CFD Toolbox           |
|  \\    /   O peration     | Version:  2112                                  |
|   \\  /    A nd           | Website:  www.openfoam.com                      |
|    \\/     M anipulation  |                                                 |
\*---------------------------------------------------------------------------*/
FoamFile
{
    version     2.0;
    format      binary;
    arch        "LSB;label=32;scalar=64";
    class       polyBoundaryMesh;
    location    "constant/polyMesh";
    object      boundary;
}
// * * * * * * * * * * * * * * * * * * * * * * * * * * * * * * * * * * * * * //

6
(
    inlet
    {
        type            patch;
        nFaces          152;
        startFace       156324;
    }
    walls
    {
        type            patch;
        nFaces          160;
        startFace       156476;
    }
    outlet
    {
        type            patch;
        nFaces          0;
        startFace       156636;
    }
    airfoil
    {
        type            wall;
        inGroups        1(wall);
        nFaces          5128;
        startFace       156636;
    }
    procBoundary4to0
    {
        type            processor;
        inGroups        1(processor);
        nFaces          1814;
        startFace       161764;
        matchTolerance  0.0001;
        transform       unknown;
        myProcNo        4;
        neighbProcNo    0;
    }
    procBoundary4to5
    {
        type            processor;
        inGroups        1(processor);
        nFaces          1492;
        startFace       163578;
        matchTolerance  0.0001;
        transform       unknown;
        myProcNo        4;
        neighbProcNo    5;
    }
)

// ************************************************************************* //
