/*--------------------------------*- C++ -*----------------------------------*| =========                 |                                                 |
| \      /  F ield         | OpenFOAM: The Open Source CFD Toolbox           |
|  \    /   O peration     | Version:  v2006                                 |
|   \  /    A nd           | Website:  www.openfoam.com                      |
|    \/     M anipulation  |                                                 |
*---------------------------------------------------------------------------*/
FoamFile
{
    version     2.0;
    format      ascii;
    class       dictionary;
    object      blockMeshDict;
}

// * * * * * * * * * * * * * * * * * * * * * * * * * * * * * * * * * * * * * //

scale   1;

vertices
(
    (-3.7190003395080566  -4.104000091552734  -4.103603839874268)
    (11.15700101852417  -4.104000091552734  -4.103603839874268)
    (11.15700101852417 4.104000091552734  -4.103603839874268)
    (-3.7190003395080566  4.104000091552734  -4.103603839874268)
    (-3.7190003395080566  -4.104000091552734   4.103603839874268)
    (11.15700101852417  -4.104000091552734   4.103603839874268)
    (11.15700101852417   4.104000091552734   4.103603839874268)
    (-3.7190003395080566   4.104000091552734  4.103603839874268)
);

blocks
(
    hex (0 1 2 3 4 5 6 7) (29 16 16) simpleGrading (1 1 1)
);

edges
(
);

boundary
(
    inlet
    {
        type patch;
        faces
        (
            (0 4 7 3)
        );
    }

    walls
    {
        type patch;
        faces
        (
            (4 5 6 7)
            (0 3 2 1)
            (3 7 6 2)
            (1 5 4 0)
        );
    }

    outlet
    {
        type patch;
        faces
        (
            (2 6 5 1)
        );
    }

);

mergePatchPairs
(
);

// ************************************************************************* //
